Version 4
SHEET 1 2704 680
WIRE 640 -2432 640 -2512
WIRE 656 -2432 640 -2432
WIRE 768 -2432 752 -2432
WIRE 784 -2432 784 -2512
WIRE 784 -2432 768 -2432
WIRE -32 -2352 -112 -2352
WIRE 112 -2352 112 -2464
WIRE 112 -2352 48 -2352
WIRE 192 -2352 112 -2352
WIRE 352 -2352 352 -2464
WIRE 352 -2352 288 -2352
WIRE 448 -2352 352 -2352
WIRE 672 -2352 528 -2352
WIRE 768 -2352 768 -2432
WIRE 768 -2352 752 -2352
WIRE 864 -2352 768 -2352
WIRE 688 -2224 688 -2304
WIRE 688 -2208 688 -2224
WIRE 736 -2208 736 -2304
WIRE 736 -2208 720 -2208
WIRE 736 -2176 736 -2208
WIRE -1440 -2128 -1440 -2208
WIRE -1424 -2128 -1440 -2128
WIRE -1408 -2128 -1424 -2128
WIRE -1296 -2128 -1296 -2208
WIRE -1296 -2128 -1312 -2128
WIRE 272 -2128 272 -2208
WIRE 288 -2128 272 -2128
WIRE 400 -2128 384 -2128
WIRE 416 -2128 416 -2208
WIRE 416 -2128 400 -2128
WIRE 1904 -2128 1904 -2208
WIRE 1920 -2128 1904 -2128
WIRE 2032 -2128 2016 -2128
WIRE 2048 -2128 2048 -2208
WIRE 2048 -2128 2032 -2128
WIRE -1920 -2048 -1920 -2816
WIRE -1808 -2048 -1920 -2048
WIRE -1424 -2048 -1424 -2128
WIRE -1424 -2048 -1648 -2048
WIRE -1408 -2048 -1424 -2048
WIRE -1312 -2048 -1312 -2128
WIRE -1312 -2048 -1328 -2048
WIRE -1024 -2048 -1312 -2048
WIRE -848 -2048 -944 -2048
WIRE -720 -2048 -720 -2816
WIRE -720 -2048 -768 -2048
WIRE -528 -2048 -720 -2048
WIRE -112 -2048 -112 -2352
WIRE -112 -2048 -368 -2048
WIRE 288 -2048 288 -2128
WIRE 288 -2048 -112 -2048
WIRE 304 -2048 288 -2048
WIRE 400 -2048 400 -2128
WIRE 400 -2048 384 -2048
WIRE 864 -2048 864 -2352
WIRE 864 -2048 400 -2048
WIRE 992 -2048 864 -2048
WIRE 1232 -2048 1072 -2048
WIRE 1488 -2048 1488 -2816
WIRE 1488 -2048 1312 -2048
WIRE 1552 -2048 1488 -2048
WIRE 1696 -2048 1552 -2048
WIRE 1920 -2048 1920 -2128
WIRE 1920 -2048 1776 -2048
WIRE 1936 -2048 1920 -2048
WIRE 2032 -2048 2032 -2128
WIRE 2032 -2048 2016 -2048
WIRE 2160 -2048 2032 -2048
WIRE 2320 -2048 2240 -2048
WIRE 2544 -2048 2400 -2048
WIRE 2608 -2048 2608 -2816
WIRE 2608 -2048 2544 -2048
WIRE 2608 -2032 2608 -2048
WIRE -1920 -2000 -1920 -2048
WIRE 864 -1952 864 -2048
WIRE 1488 -1952 1488 -2048
WIRE 1552 -1952 1552 -2048
WIRE 1952 -1936 1952 -2000
WIRE 2544 -1936 2544 -2048
WIRE 2608 -1936 2608 -1952
WIRE -1392 -1920 -1392 -2000
WIRE 320 -1920 320 -2000
WIRE -1392 -1840 -1392 -1920
WIRE -1344 -1840 -1344 -2000
WIRE -1344 -1840 -1360 -1840
WIRE 320 -1840 320 -1920
WIRE 368 -1840 368 -2000
WIRE 368 -1840 352 -1840
WIRE 1952 -1840 1952 -1936
WIRE 2000 -1840 2000 -2000
WIRE 2000 -1840 1984 -1840
WIRE 2608 -1840 2608 -1856
WIRE -1920 -1824 -1920 -1840
WIRE -1344 -1808 -1344 -1840
WIRE 368 -1808 368 -1840
WIRE 2000 -1808 2000 -1840
WIRE 2544 -1792 2544 -1872
WIRE 2608 -1792 2608 -1808
WIRE 2608 -1792 2544 -1792
WIRE -1920 -1760 -1920 -1792
WIRE -1024 -1760 -1920 -1760
WIRE -848 -1760 -944 -1760
WIRE -448 -1760 -768 -1760
WIRE 864 -1760 864 -1808
WIRE 864 -1760 -368 -1760
WIRE 992 -1760 864 -1760
WIRE 1232 -1760 1072 -1760
WIRE 1488 -1760 1488 -1888
WIRE 1488 -1760 1312 -1760
WIRE 1552 -1760 1552 -1872
WIRE 1552 -1760 1488 -1760
WIRE 1696 -1760 1552 -1760
WIRE 2160 -1760 1776 -1760
WIRE 2320 -1760 2240 -1760
WIRE 2608 -1760 2608 -1792
WIRE 2608 -1760 2400 -1760
WIRE -1920 -1744 -1920 -1760
FLAG -1920 -1744 0
FLAG 1488 -2816 cap
FLAG -1920 -2816 bat
FLAG -720 -2816 bat_sw
FLAG 368 -1808 0
FLAG -1392 -1920 BAT_SW_CMD
FLAG 320 -1920 MAIN_RL_CMD
FLAG 1952 -1936 MOTOR_SW_CMD
FLAG 2608 -2816 mot
FLAG 112 -2464 NTC_1
FLAG 352 -2464 NTC_2
FLAG 688 -2224 INRUSH_RL_CMD
FLAG 736 -2176 0
FLAG -1344 -1808 0
FLAG 2000 -1808 0
SYMBOL cap 1504 -1952 M0
WINDOW 0 66 147 VLeft 2
WINDOW 3 40 101 VLeft 2
SYMATTR InstName CAPACITOR_BANK
SYMATTR Value 100m
SYMATTR SpiceLine Rser=3m
SYMATTR Value2 IC=0
SYMBOL MiniSyms4\\voltage- -1376 -1840 R270
WINDOW 123 0 0 Left 0
WINDOW 39 0 0 Left 0
WINDOW 3 -23 -125 VRight 0
WINDOW 0 -36 -93 VRight 0
SYMATTR Value PULSE(0 1 100m 1n 1n 20 30 0)
SYMATTR InstName BAT_SWITCH_CMD
SYMBOL res -48 -2336 R270
WINDOW 0 32 56 VTop 2
WINDOW 3 0 56 VBottom 2
SYMATTR InstName R2
SYMATTR Value 1u
SYMBOL res 1536 -1968 R0
SYMATTR InstName SYSTEM_LOAD
SYMATTR Value 300
SYMBOL sw -1312 -2048 M270
WINDOW 0 -12 16 VLeft 2
WINDOW 3 -34 15 VLeft 2
SYMATTR InstName S1
SYMATTR Value IDEAL_SW
SYMBOL MiniSyms4\\voltage- -1920 -1808 R0
WINDOW 123 0 0 Left 0
WINDOW 39 0 0 Left 0
SYMATTR InstName BATTERY_BANK
SYMATTR Value 60
SYMBOL diode -1344 -2144 R90
WINDOW 0 0 32 VBottom 2
WINDOW 3 32 32 VTop 2
SYMATTR InstName D1
SYMATTR Value MUR460
SYMBOL sw 400 -2048 M270
WINDOW 0 -14 13 VLeft 2
WINDOW 3 -31 11 VLeft 2
SYMATTR InstName S2
SYMATTR Value IDEAL_SW
SYMBOL diode 384 -2144 R90
WINDOW 0 0 32 VBottom 2
WINDOW 3 32 32 VTop 2
SYMATTR InstName D3
SYMATTR Value MUR460
SYMBOL res -1344 -2224 R90
WINDOW 0 0 56 VBottom 2
WINDOW 3 32 56 VTop 2
SYMATTR InstName R6
SYMATTR Value 1
SYMBOL cap -1296 -2224 R90
WINDOW 0 0 32 VBottom 2
WINDOW 3 32 32 VTop 2
SYMATTR InstName C4
SYMATTR Value 100n
SYMBOL res 368 -2224 R90
WINDOW 0 0 56 VBottom 2
WINDOW 3 32 56 VTop 2
SYMATTR InstName R8
SYMATTR Value 10
SYMBOL cap 416 -2224 R90
WINDOW 0 0 32 VBottom 2
WINDOW 3 32 32 VTop 2
SYMATTR InstName C5
SYMATTR Value 330n
SYMBOL sw 2032 -2048 M270
WINDOW 0 -14 16 VLeft 2
WINDOW 3 -37 14 VLeft 2
SYMATTR InstName S3
SYMATTR Value IDEAL_SW
SYMBOL diode 2016 -2144 R90
WINDOW 0 0 32 VBottom 2
WINDOW 3 32 32 VTop 2
SYMATTR InstName D4
SYMATTR Value MUR460
SYMBOL MiniSyms4\\voltage- 1968 -1840 R270
WINDOW 123 0 0 Left 0
WINDOW 39 0 0 Left 0
WINDOW 3 -18 -120 VRight 0
WINDOW 0 -36 -86 VRight 0
SYMATTR Value PULSE(0 1 8 1n 1n 5 30 0)
SYMATTR InstName MOTOR_SW_CMD
SYMBOL res 2000 -2224 R90
WINDOW 0 0 56 VBottom 2
WINDOW 3 32 56 VTop 2
SYMATTR InstName R4
SYMATTR Value 1
SYMBOL cap 2048 -2224 R90
WINDOW 0 0 32 VBottom 2
WINDOW 3 32 32 VTop 2
SYMATTR InstName C6
SYMATTR Value 100n
SYMBOL res 2592 -2048 R0
SYMATTR InstName Rmotor
SYMATTR Value 35m
SYMBOL ind 2592 -1840 M180
WINDOW 0 36 80 Left 2
WINDOW 3 36 40 Left 2
SYMATTR InstName Lmotor
SYMATTR Value 28.24u
SYMBOL schottky 2560 -1872 R180
WINDOW 0 24 64 Left 2
WINDOW 3 24 0 Left 2
SYMATTR InstName D7
SYMATTR Value 1N6823
SYMATTR Description Diode
SYMATTR Type diode
SYMBOL ind -928 -2064 R90
WINDOW 0 5 56 VBottom 2
WINDOW 3 32 56 VTop 2
SYMATTR InstName L3
SYMATTR Value 100n
SYMATTR SpiceLine Rser=1m
SYMBOL ind 1792 -2064 R90
WINDOW 0 5 56 VBottom 2
WINDOW 3 32 56 VTop 2
SYMATTR InstName L5
SYMATTR Value 100n
SYMATTR SpiceLine Rser=1m
SYMBOL MiniSyms4\\voltage- 336 -1840 R270
WINDOW 123 0 0 Left 0
WINDOW 39 0 0 Left 0
WINDOW 3 -16 -125 VRight 0
WINDOW 0 -27 -81 VRight 0
SYMATTR Value PULSE(0 1 5 1n 1n 20 30 0)
SYMATTR InstName MAIN_RELAY_CMD
SYMBOL res 432 -2336 R270
WINDOW 0 32 56 VTop 2
WINDOW 3 0 56 VBottom 2
SYMATTR InstName Rlimit
SYMATTR Value 10
SYMATTR SpiceLine tol=10 pwr=10W
SYMBOL NTCLE100E3102_B0 240 -2352 R0
SYMATTR InstName U1
SYMATTR SpiceLine TR=10 TB=3
SYMBOL sw 768 -2352 M270
WINDOW 0 -11 -5 VLeft 2
WINDOW 3 -31 -2 VLeft 2
SYMATTR InstName S4
SYMATTR Value IDEAL_SW
SYMBOL ind 1088 -2064 R90
WINDOW 0 5 56 VBottom 2
WINDOW 3 32 56 VTop 2
SYMATTR InstName L2
SYMATTR Value 100n
SYMATTR SpiceLine Rser=1m
SYMBOL MiniSyms4\\voltage- 704 -2208 R270
WINDOW 123 0 0 Left 0
WINDOW 39 0 0 Left 0
WINDOW 3 -35 -6 VRight 0
WINDOW 0 -20 -7 VRight 0
SYMATTR Value PULSE(0 1 0.5 1n 1n 5 30 0)
SYMATTR InstName INRUSH_RL_CMD
SYMBOL MiniSyms4\\voltage- 2608 -1824 R0
WINDOW 123 0 0 Left 0
WINDOW 39 0 0 Left 0
WINDOW 3 19 15 Right 0
WINDOW 0 93 2 Right 0
SYMATTR Value 10
SYMATTR InstName MOTOR_BEMF
SYMBOL res -1936 -1936 R0
SYMATTR InstName Rbat
SYMATTR Value 9m
SYMBOL res 848 -1856 M180
WINDOW 0 36 76 Left 2
WINDOW 3 36 40 Left 2
SYMATTR InstName R3
SYMATTR Value 1
SYMBOL cap 848 -1808 M180
WINDOW 0 24 56 Left 2
WINDOW 3 72 9 Right 2
SYMATTR InstName C1
SYMATTR Value 100n
SYMBOL ind -352 -1776 R90
WINDOW 0 5 56 VBottom 2
WINDOW 3 32 56 VTop 2
SYMATTR InstName L7
SYMATTR Value 100n
SYMATTR SpiceLine Rser=1m
SYMBOL ind -928 -1776 R90
WINDOW 0 5 56 VBottom 2
WINDOW 3 32 56 VTop 2
SYMATTR InstName L8
SYMATTR Value 100n
SYMATTR SpiceLine Rser=1m
SYMBOL ind 1088 -1776 R90
WINDOW 0 5 56 VBottom 2
WINDOW 3 32 56 VTop 2
SYMATTR InstName L9
SYMATTR Value 100n
SYMATTR SpiceLine Rser=1m
SYMBOL ind -1936 -1904 M180
WINDOW 0 36 80 Left 2
WINDOW 3 36 40 Left 2
SYMATTR InstName Lbat
SYMATTR Value 1u
SYMATTR SpiceLine Rser=1m
SYMBOL ind -1632 -2064 R90
WINDOW 0 5 56 VBottom 2
WINDOW 3 32 56 VTop 2
SYMATTR InstName L1
SYMATTR Value 100n
SYMATTR SpiceLine Rser=1m
SYMBOL res -1712 -2064 R90
WINDOW 0 0 56 VBottom 2
WINDOW 3 32 56 VTop 2
SYMATTR InstName R1
SYMATTR Value 10m
SYMBOL ind -352 -2064 R90
WINDOW 0 5 56 VBottom 2
WINDOW 3 32 56 VTop 2
SYMATTR InstName L11
SYMATTR Value 100n
SYMATTR SpiceLine Rser=1m
SYMBOL res -432 -2064 R90
WINDOW 0 0 56 VBottom 2
WINDOW 3 32 56 VTop 2
SYMATTR InstName R5
SYMATTR Value 10m
SYMBOL res -752 -2064 R90
WINDOW 0 0 56 VBottom 2
WINDOW 3 32 56 VTop 2
SYMATTR InstName R7
SYMATTR Value 100m
SYMBOL res -752 -1776 R90
WINDOW 0 0 56 VBottom 2
WINDOW 3 32 56 VTop 2
SYMATTR InstName R9
SYMATTR Value 100m
SYMBOL res 1328 -2064 R90
WINDOW 0 0 56 VBottom 2
WINDOW 3 32 56 VTop 2
SYMATTR InstName R10
SYMATTR Value 100m
SYMBOL res 1328 -1776 R90
WINDOW 0 0 56 VBottom 2
WINDOW 3 32 56 VTop 2
SYMATTR InstName R11
SYMATTR Value 100m
SYMBOL ind 1792 -1776 R90
WINDOW 0 5 56 VBottom 2
WINDOW 3 32 56 VTop 2
SYMATTR InstName L4
SYMATTR Value 100n
SYMATTR SpiceLine Rser=1m
SYMBOL ind 2256 -2064 R90
WINDOW 0 5 56 VBottom 2
WINDOW 3 32 56 VTop 2
SYMATTR InstName L6
SYMATTR Value 100n
SYMATTR SpiceLine Rser=1m
SYMBOL ind 2256 -1776 R90
WINDOW 0 5 56 VBottom 2
WINDOW 3 32 56 VTop 2
SYMATTR InstName L10
SYMATTR Value 100n
SYMATTR SpiceLine Rser=1m
SYMBOL res 2416 -2064 R90
WINDOW 0 0 56 VBottom 2
WINDOW 3 32 56 VTop 2
SYMATTR InstName R12
SYMATTR Value 100m
SYMBOL res 2416 -1776 R90
WINDOW 0 0 56 VBottom 2
WINDOW 3 32 56 VTop 2
SYMATTR InstName R13
SYMATTR Value 100m
SYMBOL diode 752 -2448 R90
WINDOW 0 0 32 VBottom 2
WINDOW 3 32 32 VTop 2
SYMATTR InstName D2
SYMATTR Value MUR460
SYMBOL res 736 -2528 R90
WINDOW 0 0 56 VBottom 2
WINDOW 3 32 56 VTop 2
SYMATTR InstName R14
SYMATTR Value 1
SYMBOL cap 784 -2528 R90
WINDOW 0 0 32 VBottom 2
WINDOW 3 32 32 VTop 2
SYMATTR InstName C2
SYMATTR Value 100n
TEXT -208 -1680 Left 2 !.tran 100 startup uic
TEXT -208 -1640 Left 2 !.model IDEAL_SW SW()
TEXT -208 -1600 Left 2 !;.step TEMP list 0 25 50
TEXT -208 -1568 Left 2 !;.param run=1\n;.step param run 1 10 1
TEXT -1600 -2976 Left 6 ;BATTERY BOX
TEXT 1824 -2944 Left 6 ;MOTOR BOX
TEXT 104 -2968 Left 6 ;INRUSH CIRCUIT
TEXT 608 -2248 VLeft 3 ;SMALL RELAY
TEXT 272 -2456 Right 3 ;NTC
TEXT -1288 -2280 Right 3 ;SNUBBER
TEXT -1984 -1776 VLeft 4 ;BATTERY BANK
TEXT -1632 -2112 Right 4 ;BAT. FUSE
TEXT -352 -2112 Right 4 ;MAIN FUSE
TEXT -760 -1832 Right 4 ;CONN
TEXT -760 -2112 Right 4 ;CONN
TEXT 1320 -1832 Right 4 ;CONN
TEXT 1320 -2112 Right 4 ;CONN
TEXT 1088 -1816 Right 4 ;CABLE
TEXT 1080 -2112 Right 4 ;CABLE
TEXT 1784 -2112 Right 4 ;CABLE
TEXT 1784 -1824 Right 4 ;CABLE
TEXT 2248 -2112 Right 4 ;CABLE
TEXT 2248 -1824 Right 4 ;CABLE
TEXT 2408 -1832 Right 4 ;CONN
TEXT 2408 -2112 Right 4 ;CONN
TEXT -352 -1816 Right 4 ;CABLE
TEXT -928 -2112 Right 4 ;CABLE
TEXT -928 -1832 Right 4 ;CABLE
TEXT 816 -1832 VLeft 3 ;SNUBBER
TEXT 1920 -2272 Left 3 ;SNUBBER
TEXT 1408 -1776 VLeft 3 ;CAPACITOR BANK
TEXT 656 -2576 Left 3 ;SNUBBER
